# GHB package for MODFLOW-2005 generated by Flopy 3.3.5
       400         0
       400         0 # stress period 1
         1         1       200             0.0           0.625
         1         2       200             0.0           0.625
         1         3       200             0.0           0.625
         1         4       200             0.0           0.625
         1         5       200             0.0           0.625
         1         6       200             0.0           0.625
         1         7       200             0.0           0.625
         1         8       200             0.0           0.625
         1         9       200             0.0           0.625
         1        10       200             0.0           0.625
         1        11       200             0.0           0.625
         1        12       200             0.0           0.625
         1        13       200             0.0           0.625
         1        14       200             0.0           0.625
         1        15       200             0.0           0.625
         1        16       200             0.0           0.625
         1        17       200             0.0           0.625
         1        18       200             0.0           0.625
         1        19       200             0.0           0.625
         1        20       200             0.0           0.625
         1        21       200             0.0           0.625
         1        22       200             0.0           0.625
         1        23       200             0.0           0.625
         1        24       200             0.0           0.625
         1        25       200             0.0           0.625
         1        26       200             0.0           0.625
         1        27       200             0.0           0.625
         1        28       200             0.0           0.625
         1        29       200             0.0           0.625
         1        30       200             0.0           0.625
         1        31       200             0.0           0.625
         1        32       200             0.0           0.625
         1        33       200             0.0           0.625
         1        34       200             0.0           0.625
         1        35       200             0.0           0.625
         1        36       200             0.0           0.625
         1        37       200             0.0           0.625
         1        38       200             0.0           0.625
         1        39       200             0.0           0.625
         1        40       200             0.0           0.625
         1        41       200             0.0           0.625
         1        42       200             0.0           0.625
         1        43       200             0.0           0.625
         1        44       200             0.0           0.625
         1        45       200             0.0           0.625
         1        46       200             0.0           0.625
         1        47       200             0.0           0.625
         1        48       200             0.0           0.625
         1        49       200             0.0           0.625
         1        50       200             0.0           0.625
         1        51       200             0.0           0.625
         1        52       200             0.0           0.625
         1        53       200             0.0           0.625
         1        54       200             0.0           0.625
         1        55       200             0.0           0.625
         1        56       200             0.0           0.625
         1        57       200             0.0           0.625
         1        58       200             0.0           0.625
         1        59       200             0.0           0.625
         1        60       200             0.0           0.625
         1        61       200             0.0           0.625
         1        62       200             0.0           0.625
         1        63       200             0.0           0.625
         1        64       200             0.0           0.625
         1        65       200             0.0           0.625
         1        66       200             0.0           0.625
         1        67       200             0.0           0.625
         1        68       200             0.0           0.625
         1        69       200             0.0           0.625
         1        70       200             0.0           0.625
         1        71       200             0.0           0.625
         1        72       200             0.0           0.625
         1        73       200             0.0           0.625
         1        74       200             0.0           0.625
         1        75       200             0.0           0.625
         1        76       200             0.0           0.625
         1        77       200             0.0           0.625
         1        78       200             0.0           0.625
         1        79       200             0.0           0.625
         1        80       200             0.0           0.625
         1        81       200             0.0           0.625
         1        82       200             0.0           0.625
         1        83       200             0.0           0.625
         1        84       200             0.0           0.625
         1        85       200             0.0           0.625
         1        86       200             0.0           0.625
         1        87       200             0.0           0.625
         1        88       200             0.0           0.625
         1        89       200             0.0           0.625
         1        90       200             0.0           0.625
         1        91       200             0.0           0.625
         1        92       200             0.0           0.625
         1        93       200             0.0           0.625
         1        94       200             0.0           0.625
         1        95       200             0.0           0.625
         1        96       200             0.0           0.625
         1        97       200             0.0           0.625
         1        98       200             0.0           0.625
         1        99       200             0.0           0.625
         1       100       200             0.0           0.625
         1       101       200             0.0           0.625
         1       102       200             0.0           0.625
         1       103       200             0.0           0.625
         1       104       200             0.0           0.625
         1       105       200             0.0           0.625
         1       106       200             0.0           0.625
         1       107       200             0.0           0.625
         1       108       200             0.0           0.625
         1       109       200             0.0           0.625
         1       110       200             0.0           0.625
         1       111       200             0.0           0.625
         1       112       200             0.0           0.625
         1       113       200             0.0           0.625
         1       114       200             0.0           0.625
         1       115       200             0.0           0.625
         1       116       200             0.0           0.625
         1       117       200             0.0           0.625
         1       118       200             0.0           0.625
         1       119       200             0.0           0.625
         1       120       200             0.0           0.625
         1       121       200             0.0           0.625
         1       122       200             0.0           0.625
         1       123       200             0.0           0.625
         1       124       200             0.0           0.625
         1       125       200             0.0           0.625
         1       126       200             0.0           0.625
         1       127       200             0.0           0.625
         1       128       200             0.0           0.625
         1       129       200             0.0           0.625
         1       130       200             0.0           0.625
         1       131       200             0.0           0.625
         1       132       200             0.0           0.625
         1       133       200             0.0           0.625
         1       134       200             0.0           0.625
         1       135       200             0.0           0.625
         1       136       200             0.0           0.625
         1       137       200             0.0           0.625
         1       138       200             0.0           0.625
         1       139       200             0.0           0.625
         1       140       200             0.0           0.625
         1       141       200             0.0           0.625
         1       142       200             0.0           0.625
         1       143       200             0.0           0.625
         1       144       200             0.0           0.625
         1       145       200             0.0           0.625
         1       146       200             0.0           0.625
         1       147       200             0.0           0.625
         1       148       200             0.0           0.625
         1       149       200             0.0           0.625
         1       150       200             0.0           0.625
         1       151       200             0.0           0.625
         1       152       200             0.0           0.625
         1       153       200             0.0           0.625
         1       154       200             0.0           0.625
         1       155       200             0.0           0.625
         1       156       200             0.0           0.625
         1       157       200             0.0           0.625
         1       158       200             0.0           0.625
         1       159       200             0.0           0.625
         1       160       200             0.0           0.625
         1       161       200             0.0           0.625
         1       162       200             0.0           0.625
         1       163       200             0.0           0.625
         1       164       200             0.0           0.625
         1       165       200             0.0           0.625
         1       166       200             0.0           0.625
         1       167       200             0.0           0.625
         1       168       200             0.0           0.625
         1       169       200             0.0           0.625
         1       170       200             0.0           0.625
         1       171       200             0.0           0.625
         1       172       200             0.0           0.625
         1       173       200             0.0           0.625
         1       174       200             0.0           0.625
         1       175       200             0.0           0.625
         1       176       200             0.0           0.625
         1       177       200             0.0           0.625
         1       178       200             0.0           0.625
         1       179       200             0.0           0.625
         1       180       200             0.0           0.625
         1       181       200             0.0           0.625
         1       182       200             0.0           0.625
         1       183       200             0.0           0.625
         1       184       200             0.0           0.625
         1       185       200             0.0           0.625
         1       186       200             0.0           0.625
         1       187       200             0.0           0.625
         1       188       200             0.0           0.625
         1       189       200             0.0           0.625
         1       190       200             0.0           0.625
         1       191       200             0.0           0.625
         1       192       200             0.0           0.625
         1       193       200             0.0           0.625
         1       194       200             0.0           0.625
         1       195       200             0.0           0.625
         1       196       200             0.0           0.625
         1       197       200             0.0           0.625
         1       198       200             0.0           0.625
         1       199       200             0.0           0.625
         1       200       200             0.0           0.625
         1       200         1             0.0           0.625
         1       200         2             0.0           0.625
         1       200         3             0.0           0.625
         1       200         4             0.0           0.625
         1       200         5             0.0           0.625
         1       200         6             0.0           0.625
         1       200         7             0.0           0.625
         1       200         8             0.0           0.625
         1       200         9             0.0           0.625
         1       200        10             0.0           0.625
         1       200        11             0.0           0.625
         1       200        12             0.0           0.625
         1       200        13             0.0           0.625
         1       200        14             0.0           0.625
         1       200        15             0.0           0.625
         1       200        16             0.0           0.625
         1       200        17             0.0           0.625
         1       200        18             0.0           0.625
         1       200        19             0.0           0.625
         1       200        20             0.0           0.625
         1       200        21             0.0           0.625
         1       200        22             0.0           0.625
         1       200        23             0.0           0.625
         1       200        24             0.0           0.625
         1       200        25             0.0           0.625
         1       200        26             0.0           0.625
         1       200        27             0.0           0.625
         1       200        28             0.0           0.625
         1       200        29             0.0           0.625
         1       200        30             0.0           0.625
         1       200        31             0.0           0.625
         1       200        32             0.0           0.625
         1       200        33             0.0           0.625
         1       200        34             0.0           0.625
         1       200        35             0.0           0.625
         1       200        36             0.0           0.625
         1       200        37             0.0           0.625
         1       200        38             0.0           0.625
         1       200        39             0.0           0.625
         1       200        40             0.0           0.625
         1       200        41             0.0           0.625
         1       200        42             0.0           0.625
         1       200        43             0.0           0.625
         1       200        44             0.0           0.625
         1       200        45             0.0           0.625
         1       200        46             0.0           0.625
         1       200        47             0.0           0.625
         1       200        48             0.0           0.625
         1       200        49             0.0           0.625
         1       200        50             0.0           0.625
         1       200        51             0.0           0.625
         1       200        52             0.0           0.625
         1       200        53             0.0           0.625
         1       200        54             0.0           0.625
         1       200        55             0.0           0.625
         1       200        56             0.0           0.625
         1       200        57             0.0           0.625
         1       200        58             0.0           0.625
         1       200        59             0.0           0.625
         1       200        60             0.0           0.625
         1       200        61             0.0           0.625
         1       200        62             0.0           0.625
         1       200        63             0.0           0.625
         1       200        64             0.0           0.625
         1       200        65             0.0           0.625
         1       200        66             0.0           0.625
         1       200        67             0.0           0.625
         1       200        68             0.0           0.625
         1       200        69             0.0           0.625
         1       200        70             0.0           0.625
         1       200        71             0.0           0.625
         1       200        72             0.0           0.625
         1       200        73             0.0           0.625
         1       200        74             0.0           0.625
         1       200        75             0.0           0.625
         1       200        76             0.0           0.625
         1       200        77             0.0           0.625
         1       200        78             0.0           0.625
         1       200        79             0.0           0.625
         1       200        80             0.0           0.625
         1       200        81             0.0           0.625
         1       200        82             0.0           0.625
         1       200        83             0.0           0.625
         1       200        84             0.0           0.625
         1       200        85             0.0           0.625
         1       200        86             0.0           0.625
         1       200        87             0.0           0.625
         1       200        88             0.0           0.625
         1       200        89             0.0           0.625
         1       200        90             0.0           0.625
         1       200        91             0.0           0.625
         1       200        92             0.0           0.625
         1       200        93             0.0           0.625
         1       200        94             0.0           0.625
         1       200        95             0.0           0.625
         1       200        96             0.0           0.625
         1       200        97             0.0           0.625
         1       200        98             0.0           0.625
         1       200        99             0.0           0.625
         1       200       100             0.0           0.625
         1       200       101             0.0           0.625
         1       200       102             0.0           0.625
         1       200       103             0.0           0.625
         1       200       104             0.0           0.625
         1       200       105             0.0           0.625
         1       200       106             0.0           0.625
         1       200       107             0.0           0.625
         1       200       108             0.0           0.625
         1       200       109             0.0           0.625
         1       200       110             0.0           0.625
         1       200       111             0.0           0.625
         1       200       112             0.0           0.625
         1       200       113             0.0           0.625
         1       200       114             0.0           0.625
         1       200       115             0.0           0.625
         1       200       116             0.0           0.625
         1       200       117             0.0           0.625
         1       200       118             0.0           0.625
         1       200       119             0.0           0.625
         1       200       120             0.0           0.625
         1       200       121             0.0           0.625
         1       200       122             0.0           0.625
         1       200       123             0.0           0.625
         1       200       124             0.0           0.625
         1       200       125             0.0           0.625
         1       200       126             0.0           0.625
         1       200       127             0.0           0.625
         1       200       128             0.0           0.625
         1       200       129             0.0           0.625
         1       200       130             0.0           0.625
         1       200       131             0.0           0.625
         1       200       132             0.0           0.625
         1       200       133             0.0           0.625
         1       200       134             0.0           0.625
         1       200       135             0.0           0.625
         1       200       136             0.0           0.625
         1       200       137             0.0           0.625
         1       200       138             0.0           0.625
         1       200       139             0.0           0.625
         1       200       140             0.0           0.625
         1       200       141             0.0           0.625
         1       200       142             0.0           0.625
         1       200       143             0.0           0.625
         1       200       144             0.0           0.625
         1       200       145             0.0           0.625
         1       200       146             0.0           0.625
         1       200       147             0.0           0.625
         1       200       148             0.0           0.625
         1       200       149             0.0           0.625
         1       200       150             0.0           0.625
         1       200       151             0.0           0.625
         1       200       152             0.0           0.625
         1       200       153             0.0           0.625
         1       200       154             0.0           0.625
         1       200       155             0.0           0.625
         1       200       156             0.0           0.625
         1       200       157             0.0           0.625
         1       200       158             0.0           0.625
         1       200       159             0.0           0.625
         1       200       160             0.0           0.625
         1       200       161             0.0           0.625
         1       200       162             0.0           0.625
         1       200       163             0.0           0.625
         1       200       164             0.0           0.625
         1       200       165             0.0           0.625
         1       200       166             0.0           0.625
         1       200       167             0.0           0.625
         1       200       168             0.0           0.625
         1       200       169             0.0           0.625
         1       200       170             0.0           0.625
         1       200       171             0.0           0.625
         1       200       172             0.0           0.625
         1       200       173             0.0           0.625
         1       200       174             0.0           0.625
         1       200       175             0.0           0.625
         1       200       176             0.0           0.625
         1       200       177             0.0           0.625
         1       200       178             0.0           0.625
         1       200       179             0.0           0.625
         1       200       180             0.0           0.625
         1       200       181             0.0           0.625
         1       200       182             0.0           0.625
         1       200       183             0.0           0.625
         1       200       184             0.0           0.625
         1       200       185             0.0           0.625
         1       200       186             0.0           0.625
         1       200       187             0.0           0.625
         1       200       188             0.0           0.625
         1       200       189             0.0           0.625
         1       200       190             0.0           0.625
         1       200       191             0.0           0.625
         1       200       192             0.0           0.625
         1       200       193             0.0           0.625
         1       200       194             0.0           0.625
         1       200       195             0.0           0.625
         1       200       196             0.0           0.625
         1       200       197             0.0           0.625
         1       200       198             0.0           0.625
         1       200       199             0.0           0.625
         1       200       200             0.0           0.625
       400         0 # stress period 2
         1         1       200             0.0           0.625
         1         2       200             0.0           0.625
         1         3       200             0.0           0.625
         1         4       200             0.0           0.625
         1         5       200             0.0           0.625
         1         6       200             0.0           0.625
         1         7       200             0.0           0.625
         1         8       200             0.0           0.625
         1         9       200             0.0           0.625
         1        10       200             0.0           0.625
         1        11       200             0.0           0.625
         1        12       200             0.0           0.625
         1        13       200             0.0           0.625
         1        14       200             0.0           0.625
         1        15       200             0.0           0.625
         1        16       200             0.0           0.625
         1        17       200             0.0           0.625
         1        18       200             0.0           0.625
         1        19       200             0.0           0.625
         1        20       200             0.0           0.625
         1        21       200             0.0           0.625
         1        22       200             0.0           0.625
         1        23       200             0.0           0.625
         1        24       200             0.0           0.625
         1        25       200             0.0           0.625
         1        26       200             0.0           0.625
         1        27       200             0.0           0.625
         1        28       200             0.0           0.625
         1        29       200             0.0           0.625
         1        30       200             0.0           0.625
         1        31       200             0.0           0.625
         1        32       200             0.0           0.625
         1        33       200             0.0           0.625
         1        34       200             0.0           0.625
         1        35       200             0.0           0.625
         1        36       200             0.0           0.625
         1        37       200             0.0           0.625
         1        38       200             0.0           0.625
         1        39       200             0.0           0.625
         1        40       200             0.0           0.625
         1        41       200             0.0           0.625
         1        42       200             0.0           0.625
         1        43       200             0.0           0.625
         1        44       200             0.0           0.625
         1        45       200             0.0           0.625
         1        46       200             0.0           0.625
         1        47       200             0.0           0.625
         1        48       200             0.0           0.625
         1        49       200             0.0           0.625
         1        50       200             0.0           0.625
         1        51       200             0.0           0.625
         1        52       200             0.0           0.625
         1        53       200             0.0           0.625
         1        54       200             0.0           0.625
         1        55       200             0.0           0.625
         1        56       200             0.0           0.625
         1        57       200             0.0           0.625
         1        58       200             0.0           0.625
         1        59       200             0.0           0.625
         1        60       200             0.0           0.625
         1        61       200             0.0           0.625
         1        62       200             0.0           0.625
         1        63       200             0.0           0.625
         1        64       200             0.0           0.625
         1        65       200             0.0           0.625
         1        66       200             0.0           0.625
         1        67       200             0.0           0.625
         1        68       200             0.0           0.625
         1        69       200             0.0           0.625
         1        70       200             0.0           0.625
         1        71       200             0.0           0.625
         1        72       200             0.0           0.625
         1        73       200             0.0           0.625